@<TRIPOS>MOLECULE
compound7
43   45    1
SMALL
USER_CHARGES


@<TRIPOS>ATOM
      1 C1         41.2268  -34.5747    9.4988 C.2       1 MER         0.6650 
      2 C2         39.2514  -32.4156   11.0714 C.2       1 MER         0.0075 
      3 C3         41.4847  -33.4634    8.4646 C.3       1 MER        -0.1548 
      4 C4         41.1605  -32.4794    9.6063 C.3       1 MER         0.0037 
      5 C5         39.9361  -33.5209   11.4006 C.2       1 MER        -0.2590 
      6 O6         41.1498  -35.7846    9.4873 O.2       1 MER        -0.5065 
      7 C7         42.8729  -33.5258    7.8104 C.3       1 MER         0.2638 
      8 O8         43.9096  -33.4437    8.7712 O.3       1 MER        -0.6830 
      9 C9         43.0821  -32.3836    6.8079 C.3       1 MER        -0.1800 
     10 N10        40.9400  -33.6397   10.4656 N.am      1 MER        -0.2963 
     11 C11        39.8394  -34.5481   12.5796 C.2       1 MER         0.9103 
     12 O12        38.7894  -34.5187   13.2578 O.co2     1 MER        -0.8000 
     13 O13        40.8267  -35.2966   12.7513 O.co2     1 MER        -0.8000 
     14 S14        37.9211  -31.6593   11.9612 S.3       1 MER        -0.1750 
     15 C15        38.6676  -31.1725   13.5513 C.3       1 MER         0.1075 
     16 C16        39.8534  -30.2152   13.3853 C.3       1 MER        -0.1200 
     17 C17        39.2303  -28.8037   13.3491 C.3       1 MER         0.0625 
     18 C18        39.8315  -31.7180    9.8449 C.3       1 MER        -0.0012 
     19 N19        37.8579  -28.9523   13.8802 N.4       1 MER         0.1350 
     20 C20        38.8604  -31.7326    8.6549 C.3       1 MER        -0.1800 
     21 C21        37.6929  -30.3309   14.3737 C.3       1 MER         0.0025 
     22 C22        39.2046  -28.2104   11.9261 C.2       1 MER         0.4450 
     23 O24        40.3119  -27.9617   11.4017 O.co2     1 MER        -0.7225 
     24 H3         40.7036  -33.4470    7.7052 H         1 MER         0.0600 
     25 H4         42.0359  -31.9088    9.9213 H         1 MER         0.0600 
     26 H7         42.9866  -34.4750    7.2851 H         1 MER         0.0600 
     27 HO8        44.7398  -33.5324    8.3287 H         1 MER         0.4180 
     28 H91        44.0608  -32.4481    6.3315 H         1 MER         0.0600 
     29 H92        42.3303  -32.4145    6.0188 H         1 MER         0.0600 
     30 H93        43.0103  -31.4104    7.2952 H         1 MER         0.0600 
     31 H15        38.9598  -32.0719   14.0915 H         1 MER         0.0600 
     32 H161       40.5010  -30.2934   14.2594 H         1 MER         0.0600 
     33 H162       40.4774  -30.4515   12.5233 H         1 MER         0.0600 
     34 H17        39.7928  -28.1310   13.9981 H         1 MER         0.0600 
     35 H18        40.0448  -30.6807   10.1048 H         1 MER         0.0600 
     36 H201       39.3221  -31.2960    7.7692 H         1 MER         0.0600 
     37 H202       38.5449  -32.7468    8.4084 H         1 MER         0.0600 
     38 H203       37.9638  -31.1537    8.8774 H         1 MER         0.0600 
     39 H211       36.6591  -30.6691   14.2964 H         1 MER         0.0600 
     40 H212       37.9765  -30.3574   15.4266 H         1 MER         0.0600 
     41 H51        37.6595  -28.2658   14.5928 H         1 MER         0.3100 
     42 O42        38.0951  -28.0016   11.3827 O.co2     1 MER        -0.7225 
     43 H43        37.2469  -28.8098   13.0855 H         1 MER         0.3100 
@<TRIPOS>BOND
     1    1    3 1    
     2    1    6 2    
     3    1   10 am   BACKBONE|DICT|INTERRES
     4    2    5 2    
     5    2   14 1    
     6    2   18 1    
     7    3    4 1    
     8    3    7 1    
     9    3   24 1    
    10    4   10 1    
    11    4   18 1    
    12    4   25 1    
    13    5   10 1    
    14    5   11 1    
    15    7    8 1    
    16    7    9 1    
    17    7   26 1    
    18    8   27 1    
    19    9   28 1    
    20    9   29 1    
    21    9   30 1    
    22   11   12 1    
    23   11   13 2    
    24   14   15 1    
    25   15   16 1    
    26   15   21 1    
    27   15   31 1    
    28   16   17 1    
    29   16   32 1    
    30   16   33 1    
    31   17   19 1    
    32   17   22 1    
    33   17   34 1    
    34   18   20 1    
    35   18   35 1    
    36   19   21 1    
    37   19   41 1    
    38   19   43 1    
    39   20   36 1    
    40   20   37 1    
    41   20   38 1    
    42   21   39 1    
    43   21   40 1    
    44   22   23 1    
    45   22   42 2    
@<TRIPOS>SUBSTRUCTURE
     1 MER         1 GROUP             0       ****    0 ROOT    
