@<TRIPOS>MOLECULE
compound8
38   39    1
SMALL
USER_CHARGES


@<TRIPOS>ATOM
      1 C1         39.7869  -33.5269   12.9520 C.2       1 CM8         0.5770 
      2 C2         38.0319  -30.7557   12.6755 C.2       1 CM8        -0.0372 
      3 C3         38.8447  -34.0393   11.8304 C.3       1 CM8         0.0530 
      4 C4         38.8128  -32.5524   11.3391 C.3       1 CM8         0.2250 
      5 C5         39.1881  -31.1843   13.2019 C.2       1 CM8        -0.1410 
      6 O6         40.3171  -34.0127   13.9255 O.2       1 CM8        -0.5700 
      7 C7         39.4243  -35.1129   10.9170 C.3       1 CM8         0.2800 
      8 O8         40.6801  -34.6843   10.3998 O.3       1 CM8        -0.6800 
      9 C9         38.4750  -35.3929    9.7612 C.3       1 CM8         0.0000 
     10 N10        39.6799  -32.2492   12.4930 N.am      1 CM8        -0.3940 
     11 C11        39.8839  -30.6566   14.4655 C.2       1 CM8         1.0500 
     12 O12        39.1748  -30.6303   15.5113 O.co2     1 CM8        -0.9000 
     13 O13        41.0919  -30.3180   14.3027 O.co2     1 CM8        -0.9000 
     14 S14        37.0420  -29.4620   13.2209 S.3       1 CM8        -0.3310 
     15 C15        38.0692  -28.0465   12.7231 C.3       1 CM8         0.2300 
     16 C18        37.6093  -31.6230   11.5169 C.3       1 CM8         0.1382 
     17 H3         37.8842  -34.3698   12.2518 H         1 CM8         0.0000 
     18 H4         39.3431  -32.3708   10.3951 H         1 CM8         0.0000 
     19 H7         39.5911  -36.0329   11.4883 H         1 CM8         0.0000 
     20 HO8        41.0317  -35.4039    9.8480 H         1 CM8         0.4000 
     21 H91        38.8836  -36.1716    9.1084 H         1 CM8         0.0000 
     22 H92        37.4938  -35.7169   10.1216 H         1 CM8         0.0000 
     23 H93        38.3357  -34.5013    9.1398 H         1 CM8         0.0000 
     24 H18        36.6974  -32.1840   11.7464 H         1 CM8         0.0000 
     25 C29        37.3677  -26.7427   13.0865 C.3       1 CM8         0.3001 
     26 H152       39.0410  -28.0977   13.2257 H         1 CM8         0.0000 
     27 H153       38.2510  -28.0940   11.6436 H         1 CM8         0.0000 
     28 N32        38.1820  -25.5930   12.7299 N.am      1 CM8        -0.7301 
     29 H33        36.4053  -26.6574   12.5686 H         1 CM8         0.0000 
     30 H34        37.1893  -26.6774   14.1655 H         1 CM8         0.0000 
     31 C35        38.1770  -25.0380   11.4629 C.2       1 CM8         0.5690 
     32 H36        38.7876  -25.2007   13.4443 H         1 CM8         0.3700 
     33 C37        39.1155  -23.8680   11.3424 C.3       1 CM8         0.0610 
     34 O38        37.5128  -25.4411   10.5121 O.2       1 CM8        -0.5700 
     35 H39        38.8844  -23.3038   10.4346 H         1 CM8         0.0000 
     36 H40        39.0089  -23.2018   12.2033 H         1 CM8         0.0000 
     37 H41        40.1449  -24.2324   11.2891 H         1 CM8         0.0000 
     38 H18        37.4476  -31.0239   10.6144 H         1 CM8         0.0000 
@<TRIPOS>BOND
     1    1    3 1    
     2    1    6 2    
     3    1   10 am   BACKBONE|DICT|INTERRES
     4    2    5 2    
     5    2   14 1    
     6    2   16 1    
     7    3    4 1    
     8    3    7 1    
     9    3   17 1    
    10    4   10 1    
    11    4   16 1    
    12    4   18 1    
    13    5   10 1    
    14    5   11 1    
    15    7    8 1    
    16    7    9 1    
    17    7   19 1    
    18    8   20 1    
    19    9   21 1    
    20    9   22 1    
    21    9   23 1    
    22   11   12 1    
    23   11   13 2    
    24   14   15 1    
    25   15   25 1    
    26   15   26 1    
    27   15   27 1    
    28   16   24 1    
    29   16   38 1    
    30   25   28 1    
    31   25   29 1    
    32   25   30 1    
    33   28   31 am   BACKBONE|DICT|INTERRES
    34   28   32 1    
    35   31   33 1    
    36   31   34 2    
    37   33   35 1    
    38   33   36 1    
    39   33   37 1    
@<TRIPOS>SUBSTRUCTURE
     1 CM8         1 GROUP             0       ****    0 ROOT    
