@<TRIPOS>MOLECULE
imilig
37   38    1
SMALL
USER_CHARGES


@<TRIPOS>ATOM
      1 S          37.8839  -31.6425   11.6390 S.3       1 IMI        -0.3310 
      2 H2         43.5766  -32.6830    8.3206 H         1 IMI         0.0000 
      3 O          41.3569  -35.6323    9.6773 O.2       1 IMI        -0.5700 
      4 O          40.5919  -34.6333   13.1967 O.co2     1 IMI        -0.9000 
      5 O          38.4997  -34.8236   12.2933 O.co2     1 IMI        -0.9000 
      6 N          41.1699  -33.4427   10.5310 N.am      1 IMI        -0.3940 
      7 N          37.7211  -30.4625   15.5151 N.pl3     1 IMI        -0.7939 
      8 N          38.2108  -31.1746   17.7064 N.pl3     1 IMI        -0.7544 
      9 C          41.2941  -32.3065    9.6009 C.3       1 IMI         0.2250 
     10 C          41.5233  -33.3723    8.4779 C.3       1 IMI         0.0530 
     11 C          39.9911  -31.5249    9.7853 C.3       1 IMI         0.1382 
     12 C          41.3848  -34.4243    9.6127 C.2       1 IMI         0.5770 
     13 C          42.8747  -33.3274    7.7792 C.3       1 IMI         0.2800 
     14 C          40.0507  -33.3118   11.3116 C.2       1 IMI        -0.1410 
     15 C          39.3568  -32.2171   10.9659 C.2       1 IMI        -0.0372 
     16 C          43.4558  -34.7262    7.6339 C.3       1 IMI         0.0000 
     17 C          39.6734  -34.3620   12.3700 C.2       1 IMI         1.0500 
     18 C          38.4383  -31.1978   13.3107 C.3       1 IMI         0.2300 
     19 C          37.2453  -30.7820   14.1580 C.3       1 IMI         0.4895 
     20 C          37.7944  -31.3764   16.4705 C.cat     1 IMI         0.5588 
     21 H          42.1804  -31.7037    9.8407 H         1 IMI         0.0000 
     22 H          40.6883  -33.4269    7.7662 H         1 IMI         0.0000 
     23 H          40.2000  -30.4735   10.0099 H         1 IMI         0.0000 
     24 H          39.3553  -31.5853    8.8959 H         1 IMI         0.0000 
     25 O25        42.6790  -32.7708    6.4815 O.3       1 IMI        -0.6800 
     26 H          44.4059  -34.6930    7.0899 H         1 IMI         0.0000 
     27 H          43.6294  -35.1933    8.6076 H         1 IMI         0.0000 
     28 H          42.7839  -35.3722    7.0577 H         1 IMI         0.0000 
     29 H          38.9427  -32.0466   13.7824 H         1 IMI         0.0000 
     30 H          39.1622  -30.3779   13.2478 H         1 IMI         0.0000 
     31 H          36.7616  -29.8842   13.7581 H         1 IMI         0.0000 
     32 H          36.4931  -31.5767   14.2237 H         1 IMI         0.0000 
     33 H          37.4925  -32.3838   16.2285 H         1 IMI         0.1500 
     34 H          38.2360  -31.9397   18.3714 H         1 IMI         0.4500 
     35 H          38.5142  -30.2567   18.0099 H         1 IMI         0.4500 
     36 H36        43.5449  -32.7469    6.0390 H         1 IMI         0.4000 
     37 H37        38.0142  -29.5179   15.7447 H         1 IMI         0.4500 
@<TRIPOS>BOND
     1    1   15 1    
     2    1   18 1    
     3    2   13 1    
     4    3   12 2    
     5    4   17 1    
     6    5   17 2    
     7    6    9 1    
     8    6   12 am   BACKBONE|DICT|INTERRES
     9    6   14 1    
    10    7   19 1    
    11    7   20 ar   
    12    7   37 1    
    13    8   20 ar   
    14    8   34 1    
    15    8   35 1    
    16    9   10 1    
    17    9   11 1    
    18    9   21 1    
    19   10   12 1    
    20   10   13 1    
    21   10   22 1    
    22   11   15 1    
    23   11   23 1    
    24   11   24 1    
    25   13   16 1    
    26   13   25 1    
    27   14   15 2    
    28   14   17 1    
    29   16   26 1    
    30   16   27 1    
    31   16   28 1    
    32   18   19 1    
    33   18   29 1    
    34   18   30 1    
    35   19   31 1    
    36   19   32 1    
    37   20   33 1    
    38   25   36 1    
@<TRIPOS>SUBSTRUCTURE
     1 IMI         1 GROUP             0       ****    0 ROOT    
