@<TRIPOS>MOLECULE
104838
37   38    1
SMALL
USER_CHARGES


@<TRIPOS>ATOM
      1 S          37.7613  -31.9550   11.5730 S.3       1 IMI        -0.3310 
      2 O          43.2426  -31.9858    7.6775 O.3       1 IMI        -0.6800 
      3 O          41.4765  -35.6618    9.4981 O.2       1 IMI        -0.5700 
      4 O          38.6758  -35.0819   12.1982 O.co2     1 IMI        -0.9000 
      5 O          40.7568  -34.6694   13.0524 O.co2     1 IMI        -0.9000 
      6 N          41.1375  -33.4835   10.3360 N.am      1 IMI        -0.3940 
      7 N          37.6682  -30.7528   15.4448 N.pl3     1 IMI        -0.7939 
      8 N          38.3241  -31.3961   17.6139 N.pl3     1 IMI        -0.7544 
      9 C          41.1241  -32.3531    9.3894 C.3       1 IMI         0.2250 
     10 C          41.3865  -33.4143    8.2688 C.3       1 IMI         0.0530 
     11 C          39.7701  -31.6791    9.6284 C.3       1 IMI         0.1382 
     12 C          41.3988  -34.4566    9.4196 C.2       1 IMI         0.5770 
     13 C          42.6641  -33.2673    7.4497 C.3       1 IMI         0.2800 
     14 C          40.0455  -33.4382   11.1629 C.2       1 IMI        -0.1410 
     15 C          39.2477  -32.4094   10.8402 C.2       1 IMI        -0.0372 
     16 C          43.6702  -34.3472    7.8217 C.3       1 IMI         0.0000 
     17 C          39.7990  -34.5044   12.2426 C.2       1 IMI         1.0500 
     18 C          38.3482  -31.4438   13.2144 C.3       1 IMI         0.2300 
     19 C          37.1622  -31.1279   14.1131 C.3       1 IMI         0.4895 
     20 C          37.8716  -31.6472   16.3999 C.cat     1 IMI         0.5588 
     21 H          41.9650  -31.6735    9.5803 H         1 IMI         0.0000 
     22 H          40.5149  -33.5478    7.6125 H         1 IMI         0.0000 
     23 H          39.9017  -30.6121    9.8378 H         1 IMI         0.0000 
     24 H          39.1027  -31.7991    8.7688 H         1 IMI         0.0000 
     25 H          42.4246  -33.3428    6.3832 H         1 IMI         0.0000 
     26 H          44.5745  -34.2550    7.2107 H         1 IMI         0.0000 
     27 H          43.9864  -34.2520    8.8660 H         1 IMI         0.0000 
     28 H          43.2519  -35.3482    7.6780 H         1 IMI         0.0000 
     29 H          44.0604  -31.9338    7.1538 H         1 IMI         0.4000 
     30 H          38.9482  -32.2383   13.6683 H         1 IMI         0.0000 
     31 H          38.9914  -30.5628   13.1126 H         1 IMI         0.0000 
     32 H          36.5818  -30.2815   13.7301 H         1 IMI         0.0000 
     33 H          36.4885  -31.9863   14.2186 H         1 IMI         0.0000 
     34 H          37.6551  -32.6806   16.1770 H         1 IMI         0.1500 
     35 H          38.4522  -32.1494   18.2804 H         1 IMI         0.4500 
     36 H          38.5535  -30.4510   17.8985 H         1 IMI         0.4500 
     37 H37        37.8814  -29.7828   15.6561 H         1 IMI         0.4500 
@<TRIPOS>BOND
     1    1   15 1    
     2    1   18 1    
     3    2   29 1    
     4    2   13 1    
     5    3   12 2    
     6    4   17 1    
     7    5   17 2    
     8    6    9 1    
     9    6   12 am   BACKBONE|DICT|INTERRES
    10    6   14 1    
    11    7   19 1    
    12    7   20 ar   
    13    7   37 1    
    14    8   20 ar   
    15    8   35 1    
    16    8   36 1    
    17    9   10 1    
    18    9   11 1    
    19    9   21 1    
    20   10   12 1    
    21   10   13 1    
    22   10   22 1    
    23   11   15 1    
    24   11   23 1    
    25   11   24 1    
    26   13   16 1    
    27   13   25 1    
    28   14   15 2    
    29   14   17 1    
    30   16   26 1    
    31   16   27 1    
    32   16   28 1    
    33   18   19 1    
    34   18   30 1    
    35   18   31 1    
    36   19   32 1    
    37   19   33 1    
    38   20   34 1    
@<TRIPOS>SUBSTRUCTURE
     1 IMI         1 GROUP             0       ****    0 ROOT    
