@<TRIPOS>MOLECULE
ARG_toSMD
27   26    1
SMALL
USER_CHARGES


@<TRIPOS>ATOM
      1 N          38.5079  -32.8966   11.0884 N.3       1 LIG         0.2475 
      2 CA         38.7900  -31.8500   12.0806 C.3       1 LIG         0.0625 
      3 C          37.8441  -32.0758   13.2703 C.2       1 LIG         0.4450 
      4 O          36.7542  -32.6191   12.9821 O.co2     1 LIG        -0.7225 
      5 CB         38.5698  -30.4602   11.4507 C.3       1 LIG        -0.1200 
      6 CG         38.7635  -29.3020   12.4422 C.3       1 LIG        -0.0500 
      7 CD         38.5191  -27.9259   11.8302 C.3       1 LIG         0.1900 
      8 NE         38.5328  -26.9068   12.8922 N.pl3     1 LIG        -0.7000 
      9 CZ         38.4077  -25.5842   12.7490 C.cat     1 LIG         0.6399 
     10 NH1        38.4491  -24.8009   13.8279 N.pl3     1 LIG        -0.8000 
     11 NH2        38.2436  -25.0539   11.5348 N.pl3     1 LIG        -0.8000 
     12 O12        38.1996  -31.6333   14.3815 O.co2     1 LIG        -0.7225 
     13 H2         38.6448  -32.6354   10.1307 H         1 LIG         0.2100 
     14 H3         38.9710  -33.7470   11.3651 H         1 LIG         0.2100 
     15 HA         39.8205  -31.9504   12.4250 H         1 LIG         0.0600 
     16 HB3        39.2482  -30.3361   10.6072 H         1 LIG         0.0600 
     17 HB2        37.5558  -30.4168   11.0486 H         1 LIG         0.0600 
     18 HG3        38.0718  -29.4152   13.2776 H         1 LIG         0.0600 
     19 HG2        39.7676  -29.3635   12.8643 H         1 LIG         0.0600 
     20 HD3        39.2803  -27.7075   11.0803 H         1 LIG         0.0600 
     21 HD2        37.5469  -27.9102   11.3344 H         1 LIG         0.0600 
     22 HE         38.5957  -27.3408   13.8092 H         1 LIG         0.4400 
     23 HH12       38.3576  -23.7964   13.7814 H         1 LIG         0.4600 
     24 HH11       38.5702  -25.1982   14.7515 H         1 LIG         0.4600 
     25 HH21       38.1399  -24.0646   11.3639 H         1 LIG         0.4600 
     26 H26        38.1937  -25.6668   10.7321 H         1 LIG         0.4600 
     27 H27        37.5192  -33.0310   11.3359 H         1 LIG         0.2100 
@<TRIPOS>BOND
     1    1    2 1    
     2    1   13 1    
     3    1   14 1    
     4    1   27 1    
     5    2    3 1    
     6    2    5 1    
     7    2   15 1    
     8    3    4 2    
     9    3   12 1    
    10    5    6 1    
    11    5   16 1    
    12    5   17 1    
    13    6    7 1    
    14    6   18 1    
    15    6   19 1    
    16    7    8 1    
    17    7   20 1    
    18    7   21 1    
    19    8    9 ar   
    20    8   22 1    
    21    9   10 ar   
    22    9   11 ar   
    23   10   23 1    
    24   10   24 1    
    25   11   25 1    
    26   11   26 1    
@<TRIPOS>SUBSTRUCTURE
     1 LIG         1 GROUP             0       ****    0 ROOT    
