@<TRIPOS>MOLECULE
compound8
41   42    1
SMALL
USER_CHARGES


@<TRIPOS>ATOM
      1 C1         39.4822  -33.7015   12.6653 C.2       1 MER         0.6650 
      2 C2         37.7336  -30.8777   12.6414 C.2       1 MER         0.0075 
      3 C3         38.7141  -34.0948   11.3901 C.3       1 MER        -0.1548 
      4 C4         38.5584  -32.5795   11.1507 C.3       1 MER         0.0037 
      5 C5         38.9023  -31.2893   13.1555 C.2       1 MER        -0.2590 
      6 O6         39.9498  -34.2808   13.6222 O.2       1 MER        -0.5065 
      7 C7         39.5090  -34.9954   10.4332 C.3       1 MER         0.2638 
      8 O8         40.7114  -34.3789   10.0104 O.3       1 MER        -0.6830 
      9 C9         38.7023  -35.3435    9.1756 C.3       1 MER        -0.1800 
     10 N10        39.2968  -32.3662   12.3928 N.am      1 MER        -0.2963 
     11 C11        39.8210  -30.7713   14.3155 C.2       1 MER         0.9103 
     12 O12        39.3266  -29.9092   15.0744 O.co2     1 MER        -0.8000 
     13 O13        40.9752  -31.2502   14.3711 O.co2     1 MER        -0.8000 
     14 S14        36.7771  -29.4706   13.1285 S.3       1 MER        -0.1750 
     15 C15        37.8341  -28.0745   12.6586 C.3       1 MER         0.0475 
     16 C18        37.3095  -31.7044   11.4318 C.3       1 MER        -0.0012 
     17 C20        36.0187  -32.4960   11.6922 C.3       1 MER        -0.1800 
     18 H3         37.7551  -34.5493   11.6363 H         1 MER         0.0600 
     19 H4         39.1268  -32.2382   10.2838 H         1 MER         0.0600 
     20 H7         39.7769  -35.9223   10.9422 H         1 MER         0.0600 
     21 HO8        41.1897  -34.9882    9.4691 H         1 MER         0.4180 
     22 H91        39.2653  -36.0013    8.5126 H         1 MER         0.0600 
     23 H92        37.7754  -35.8552    9.4359 H         1 MER         0.0600 
     24 H93        38.4387  -34.4471    8.6130 H         1 MER         0.0600 
     25 H18        37.1411  -31.0252   10.5953 H         1 MER         0.0600 
     26 H201       35.7750  -33.1358   10.8439 H         1 MER         0.0600 
     27 H202       36.1086  -33.1265   12.5773 H         1 MER         0.0600 
     28 H203       35.1744  -31.8251   11.8518 H         1 MER         0.0600 
     29 C29        37.2635  -26.7445   13.1692 C.3       1 MER         0.0800 
     30 H152       38.8347  -28.2280   13.0613 H         1 MER         0.0600 
     31 H153       37.9271  -28.0641   11.5723 H         1 MER         0.0600 
     32 N32        38.1337  -25.6240   12.8320 N.am      1 MER        -0.5000 
     33 H33        36.2621  -26.5784   12.7685 H         1 MER         0.0600 
     34 H34        37.1628  -26.7795   14.2544 H         1 MER         0.0600 
     35 C35        38.1697  -25.0094   11.6406 C.2       1 MER         0.5000 
     36 H36        38.7581  -25.2974   13.5553 H         1 MER         0.3000 
     37 C37        39.1633  -23.8615   11.5028 C.3       1 MER        -0.1800 
     38 O38        37.4572  -25.3276   10.6893 O.2       1 MER        -0.5000 
     39 H39        39.1184  -23.4288   10.5028 H         1 MER         0.0600 
     40 H40        38.9407  -23.0756   12.2249 H         1 MER         0.0600 
     41 H41        40.1801  -24.2148   11.6762 H         1 MER         0.0600 
@<TRIPOS>BOND
     1    1    3 1    
     2    1    6 2    
     3    1   10 am   BACKBONE|DICT|INTERRES
     4    2    5 2    
     5    2   14 1    
     6    2   16 1    
     7    3    4 1    
     8    3    7 1    
     9    3   18 1    
    10    4   10 1    
    11    4   16 1    
    12    4   19 1    
    13    5   10 1    
    14    5   11 1    
    15    7    8 1    
    16    7    9 1    
    17    7   20 1    
    18    8   21 1    
    19    9   22 1    
    20    9   23 1    
    21    9   24 1    
    22   11   12 1    
    23   11   13 2    
    24   14   15 1    
    25   15   29 1    
    26   15   30 1    
    27   15   31 1    
    28   16   17 1    
    29   16   25 1    
    30   17   26 1    
    31   17   27 1    
    32   17   28 1    
    33   29   32 1    
    34   29   33 1    
    35   29   34 1    
    36   32   35 am   BACKBONE|DICT|INTERRES
    37   32   36 1    
    38   35   37 1    
    39   35   38 2    
    40   37   39 1    
    41   37   40 1    
    42   37   41 1    
@<TRIPOS>SUBSTRUCTURE
     1 MER         1 GROUP             0       ****    0 ROOT    
