@<TRIPOS>MOLECULE
merolig
51   53    1
SMALL
USER_CHARGES


@<TRIPOS>ATOM
      1 C1         41.0772  -34.6549    9.3344 C.2       1 MER         0.6650 
      2 C2         39.3436  -32.3500   10.9833 C.2       1 MER         0.0075 
      3 C3         41.4573  -33.5424    8.3401 C.3       1 MER        -0.1548 
      4 C4         41.2412  -32.5704    9.5173 C.3       1 MER         0.0037 
      5 C5         39.9018  -33.5350   11.2720 C.2       1 MER        -0.2590 
      6 O6         40.8685  -35.8479    9.2794 O.2       1 MER        -0.5065 
      7 C7         42.8314  -33.7344    7.6813 C.3       1 MER         0.2638 
      8 O8         43.8695  -33.7922    8.6422 O.3       1 MER        -0.6830 
      9 C9         43.1633  -32.5928    6.7118 C.3       1 MER        -0.1800 
     10 N10        40.8918  -33.7294   10.3346 N.am      1 MER        -0.2963 
     11 C11        39.6781  -34.5938   12.4057 C.2       1 MER         0.9103 
     12 O12        38.6399  -34.4636   13.0906 O.co2     1 MER        -0.8000 
     13 O13        40.5665  -35.4633   12.5418 O.co2     1 MER        -0.8000 
     14 S14        38.0805  -31.5007   11.8871 S.3       1 MER        -0.1750 
     15 C15        38.8634  -31.1428   13.4911 C.3       1 MER         0.1075 
     16 C16        39.9732  -30.0968   13.3867 C.3       1 MER        -0.1200 
     17 C17        39.2805  -28.7457   13.6409 C.3       1 MER         0.2300 
     18 C18        40.0044  -31.6751    9.7851 C.3       1 MER        -0.0012 
     19 N19        38.1098  -29.0565   14.4907 N.4       1 MER        -0.0325 
     20 C20        39.0438  -31.5340    8.5948 C.3       1 MER        -0.1800 
     21 C21        37.8627  -30.5139   14.4658 C.3       1 MER         0.0025 
     22 C22        38.8852  -27.9447   12.3771 C.2       1 MER         0.5000 
     23 N23        38.3102  -26.7233   12.5072 N.am      1 MER        -0.1400 
     24 O24        39.0940  -28.4382   11.2684 O.2       1 MER        -0.5000 
     25 C25        37.8729  -25.9783   11.3231 C.3       1 MER        -0.1100 
     26 C26        38.1067  -26.0315   13.7840 C.3       1 MER        -0.1100 
     27 H3         40.6839  -33.4137    7.5837 H         1 MER         0.0600 
     28 H4         42.1740  -32.1124    9.8508 H         1 MER         0.0600 
     29 H7         42.8430  -34.6747    7.1283 H         1 MER         0.0600 
     30 HO8        44.6845  -33.9666    8.1966 H         1 MER         0.4180 
     31 H91        44.1301  -32.7483    6.2319 H         1 MER         0.0600 
     32 H92        42.4137  -32.5199    5.9234 H         1 MER         0.0600 
     33 H93        43.1960  -31.6320    7.2270 H         1 MER         0.0600 
     34 H15        39.2532  -32.0752   13.8967 H         1 MER         0.0600 
     35 H161       40.6942  -30.2759   14.1856 H         1 MER         0.0600 
     36 H162       40.5370  -30.1504   12.4552 H         1 MER         0.0600 
     37 H17        39.9712  -28.1245   14.2110 H         1 MER         0.0600 
     38 H18        40.3323  -30.6799   10.0852 H         1 MER         0.0600 
     39 HN19       38.2981  -28.7701   15.4407 H         1 MER         0.3100 
     40 H201       39.5565  -31.1198    7.7264 H         1 MER         0.0600 
     41 H202       38.6167  -32.4958    8.3095 H         1 MER         0.0600 
     42 H203       38.2173  -30.8661    8.8382 H         1 MER         0.0600 
     43 H211       36.8269  -30.7307   14.2022 H         1 MER         0.0600 
     44 H212       38.0286  -30.9012   15.4716 H         1 MER         0.0600 
     45 H251       37.1813  -25.1730   11.5735 H         1 MER         0.0600 
     46 H252       38.7322  -25.5374   10.8163 H         1 MER         0.0600 
     47 H253       37.3544  -26.6246   10.6128 H         1 MER         0.0600 
     48 H261       37.9751  -24.9578   13.6438 H         1 MER         0.0600 
     49 H262       37.2137  -26.4060   14.2849 H         1 MER         0.0600 
     50 H263       38.9573  -26.1435   14.4560 H         1 MER         0.0600 
     51 H51        37.3023  -28.5634   14.1368 H         1 MER         0.3100 
@<TRIPOS>BOND
     1    1    3 1    
     2    1    6 2    
     3    1   10 am   BACKBONE|DICT|INTERRES
     4    2    5 2    
     5    2   14 1    
     6    2   18 1    
     7    3    4 1    
     8    3    7 1    
     9    3   27 1    
    10    4   10 1    
    11    4   18 1    
    12    4   28 1    
    13    5   10 1    
    14    5   11 1    
    15    7    8 1    
    16    7    9 1    
    17    7   29 1    
    18    8   30 1    
    19    9   31 1    
    20    9   32 1    
    21    9   33 1    
    22   11   12 1    
    23   11   13 2    
    24   14   15 1    
    25   15   16 1    
    26   15   21 1    
    27   15   34 1    
    28   16   17 1    
    29   16   35 1    
    30   16   36 1    
    31   17   19 1    
    32   17   22 1    
    33   17   37 1    
    34   18   20 1    
    35   18   38 1    
    36   19   21 1    
    37   19   39 1    
    38   19   51 1    
    39   20   40 1    
    40   20   41 1    
    41   20   42 1    
    42   21   43 1    
    43   21   44 1    
    44   22   23 am   BACKBONE|DICT|INTERRES
    45   22   24 2    
    46   23   25 1    
    47   23   26 1    
    48   25   45 1    
    49   25   46 1    
    50   25   47 1    
    51   26   48 1    
    52   26   49 1    
    53   26   50 1    
@<TRIPOS>SUBSTRUCTURE
     1 MER         1 GROUP             0       ****    0 ROOT    
